LAMMPS (13 Apr 2017)
#added some comments, visualise the oputput with "vmd test.xyz -e vmd_script"

units				lj 							#reduced MD units
atom_style			full  					#format of the configurational input
#bond_style     		harmonic
boundary 			p p p 				   		#periodic boundaries in all directions
atom_modify			sort 0 1   					#format of the output
read_data			lammps.data  					#file from which the initial configuraiton, bonds, and angles are read
  orthogonal box = (-50 -50 -50) to (50 50 50)
  reading atoms ...
  600 atoms
neighbor        1 bin
neigh_modify		every 1 delay 1 			#how the neighbour list is built
pair_style			lj/cut 1.3  				#define the potential and the largest cut-off in the system
pair_coeff			1 1 10 1.0 1.3 			#interactions between particles of type 1: epsilon, sigma, cut-off
pair_modify			shift yes 					#shift the potential to 0 at the cut-off to ensure continuity
#bond_coeff 			* 8 0.9
dump				0 all xyz 100 test.xyz		#write the output file in the xyz form every 100 steps
velocity 			all create 1.0 1 			#create the initail velocities, around temp=1
fix					 0 all rigid/nve molecule					#perform nve integration
20 rigid bodies with 600 atoms
fix					3 all langevin 1 1 1 1000 	#add random noise via langevin equation of motion
thermo				300							#how often the output is written
timestep			0.001						#size of the time-step for the integration
run					500000						#run the simulation for this number of steps
  update every 1 steps, delay 1 steps, check yes
Step Temp E_pair E_mol TotEng Press
0    1.0793899   -3.3137453            0   -3.2264946  -0.43798679
Averages over the last 834 of 1668 rows, steps 250200 to 500000:
Temp E_pair E_mol TotEng Press
1.03431 -3.68381 0 -3.60021 0.000160322
Loop time of 47.5799 on 1 procs for 500000 steps with 600 atoms
